/*--------------------------------*- C++ -*----------------------------------*\
| =========                 |                                                 |
| \\      /  F ield         | OpenFOAM: The Open Source CFD Toolbox           |
|  \\    /   O peration     | Version:  v2012                                 |
|   \\  /    A nd           | Website:  www.openfoam.com                      |
|    \\/     M anipulation  |                                                 |
\*---------------------------------------------------------------------------*/
FoamFile
{
    version     2.0;
    format      ascii;
    class       polyBoundaryMesh;
    location    "constant/polyMesh";
    object      boundary;
}
// * * * * * * * * * * * * * * * * * * * * * * * * * * * * * * * * * * * * * //

5
(
    inlet
    {
        type            patch;
        nFaces          10;
        startFace       1890;
    }
    outlet
    {
        type            patch;
        nFaces          10;
        startFace       1900;
    }
    top
    {
        type            wall;
        inGroups        1(wall);
        nFaces          100;
        startFace       1910;
    }
    bottom
    {
        type            wall;
        inGroups        1(wall);
        nFaces          100;
        startFace       2010;
    }
    frontAndBack
    {
        type            empty;
        inGroups        1(empty);
        nFaces          2000;
        startFace       2110;
    }
)

// ************************************************************************* //
