/*--------------------------------*- C++ -*----------------------------------*\
| =========                 |                                                 |
| \\      /  F ield         | OpenFOAM: The Open Source CFD Toolbox           |
|  \\    /   O peration     | Version:  v2012                                 |
|   \\  /    A nd           | Website:  www.openfoam.com                      |
|    \\/     M anipulation  |                                                 |
\*---------------------------------------------------------------------------*/
FoamFile
{
    version     2.0;
    format      ascii;
    class       dictionary;
    location    "system";
    object      sample;
}
// * * * * * * * * * * * * * * * * * * * * * * * * * * * * * * * * * * * * * //

type sets;
libs            ("libsampling.so");

interpolationScheme cellPoint;

setFormat       csv;
fields          (U p T);
writeControl    writeTime;
writeInterval   1;

sets
(
    /*
	vert_1
    {
        type    uniform;
        axis    y;
        start   (0.5 0 0.05);
        end     (0.5 0.1 0.05);
        nPoints 10;
    }

    horiz_1
    {
        type    uniform;
        axis    x;
        start   (0 0.05 0.05);
        end     (1 0.05 0.05);
        nPoints 50;
    }
	*/
	
	cloud1
    {
        type    cloud;
        axis    xyz;
        points
		(
			(	0.809573659	0.0867524	0.05	)
			(	0.648521871	0.074130565	0.05	)
			(	0.720479392	0.052504391	0.05	)
			(	0.013477847	0.011974118	0.05	)
			(	0.312765776	0.012438516	0.05	)
			(	0.220725243	0.054702584	0.05	)
			(	0.717799754	0.085156902	0.05	)
			(	0.893584737	0.072555516	0.05	)
			(	0.619900822	0.037826511	0.05	)
			(	0.008718593	0.071860988	0.05	)
			(	0.224452904	0.012522286	0.05	)
			(	0.178957665	0.085737086	0.05	)
			(	0.985271698	0.025459452	0.05	)
			(	0.838037071	0.092165571	0.05	)
			(	0.405357941	0.02372576	0.05	)
			(	0.328171038	0.006160444	0.05	)
			(	0.97952884	0.054966985	0.05	)
			(	0.897251611	0.092447238	0.05	)
			(	0.207136924	0.027647314	0.05	)
			(	0.315163625	0.071596931	0.05	)
			(	0.556831084	0.063718321	0.05	)
			(	0.759841433	0.009966654	0.05	)
			(	0.81178803	0.003737891	0.05	)
			(	0.16655496	0.053115987	0.05	)
			(	0.731376349	0.003825876	0.05	)
			(	0.915927431	0.010118598	0.05	)
			(	0.564027045	0.033699278	0.05	)
			(	0.138806492	0.094636773	0.05	)
			(	0.031596525	0.040993844	0.05	)
			(	0.610728027	0.03496535	0.05	)
			(	0.454585253	0.084716109	0.05	)
			(	0.685335027	0.059644895	0.05	)
			(	0.281461561	0.030622649	0.05	)
			(	0.575430053	0.099376767	0.05	)
			(	0.405603915	0.001856392	0.05	)
			(	0.893136499	0.02994695	0.05	)
			(	0.375127007	0.06236389	0.05	)
			(	0.830223192	0.060321684	0.05	)
			(	0.669724091	0.072571008	0.05	)
			(	0.703831338	0.005839444	0.05	)
			(	0.425403209	0.064943563	0.05	)
			(	0.739314306	0.004852007	0.05	)
			(	0.301668116	0.058255707	0.05	)
			(	0.556233885	0.026789701	0.05	)
			(	0.081307561	0.097285637	0.05	)
			(	0.783404348	0.084818483	0.05	)
			(	0.185637207	0.071399125	0.05	)
			(	0.753217048	0.07296117	0.05	)
			(	0.34603807	0.01132031	0.05	)
			(	0.526637834	0.031761089	0.05	)
			(	0.254677899	0.005558762	0.05	)
			(	0.184529187	0.093404147	0.05	)
			(	0.089021807	0.097332004	0.05	)
			(	0.55790586	0.044559464	0.05	)
			(	0.389395856	0.047847966	0.05	)
			(	0.614400572	0.032069803	0.05	)
			(	0.081769767	0.089056264	0.05	)
			(	0.697163736	0.098326273	0.05	)
			(	0.141646692	0.007118421	0.05	)
			(	0.389836711	0.085904251	0.05	)
			(	0.056375795	0.018700386	0.05	)
			(	0.350226741	0.046409926	0.05	)
			(	0.456337572	0.071204165	0.05	)
			(	0.786220494	0.027058835	0.05	)
			(	0.113519543	0.045152908	0.05	)
			(	0.123773837	0.055168239	0.05	)
			(	0.721892952	0.094957118	0.05	)
			(	0.035627298	0.042429368	0.05	)
			(	0.024663838	0.04191076	0.05	)
			(	0.322049581	0.098348488	0.05	)
			(	0.3829713	0.084818377	0.05	)
			(	0.235484493	0.06249311	0.05	)
			(	0.218633726	0.023374987	0.05	)
			(	0.08478378	0.029308557	0.05	)
			(	0.814323866	0.099151748	0.05	)
			(	0.524873498	0.041703239	0.05	)
			(	0.833217132	0.051966031	0.05	)
			(	0.442345044	0.064335985	0.05	)
			(	0.705107223	0.030638274	0.05	)
			(	0.460860563	0.097455588	0.05	)
			(	0.826490346	0.038053737	0.05	)
			(	0.063561765	0.042778488	0.05	)
			(	0.60977477	0.045093726	0.05	)
			(	0.149301306	0.043857307	0.05	)
			(	0.329519866	0.081871945	0.05	)
			(	0.691366831	0.010469743	0.05	)
			(	0.538381587	0.092756654	0.05	)
			(	0.834575447	0.060582075	0.05	)
			(	0.070754584	0.010640808	0.05	)
			(	0.540294935	0.091188124	0.05	)
			(	0.625438326	0.010273286	0.05	)
			(	0.616433753	0.0804049	0.05	)
			(	0.117938524	0.075905679	0.05	)
			(	0.738681654	0.008117135	0.05	)
			(	0.106810653	0.05148982	0.05	)
			(	0.924453107	0.015034221	0.05	)
			(	0.888808946	0.008221516	0.05	)
			(	0.867455224	0.033491221	0.05	)
			(	0.134380912	0.039255627	0.05	)
			(	0.585399087	0.049580298	0.05	)
			(	0.807335261	0.072108862	0.05	)
			(	0.908738745	0.04468958	0.05	)
			(	0.632550357	0.059846981	0.05	)
			(	0.317767705	0.034422645	0.05	)
			(	0.456928125	0.087940629	0.05	)
			(	0.138281072	0.081599364	0.05	)
			(	0.700988928	0.06864151	0.05	)
			(	0.501575472	0.096963505	0.05	)
			(	0.589224924	0.015290014	0.05	)
			(	0.640304083	0.058183574	0.05	)
			(	0.575591883	0.068891438	0.05	)
			(	0.283378033	0.063289665	0.05	)
			(	0.596416273	0.090199917	0.05	)
			(	0.007617102	0.071781721	0.05	)
			(	0.204913596	0.073535262	0.05	)
			(	0.452683218	0.073462081	0.05	)
			(	0.409958186	0.085335555	0.05	)
			(	0.757982936	0.009258866	0.05	)
			(	0.746357702	0.014201053	0.05	)
			(	0.164027316	0.093677439	0.05	)
			(	0.239225351	0.060202642	0.05	)
			(	0.088628428	0.06342508	0.05	)
			(	0.424266129	0.056047679	0.05	)
			(	0.675342051	0.021305582	0.05	)
			(	0.433562319	0.018743072	0.05	)
			(	0.45990962	0.005125587	0.05	)
			(	0.003159408	0.022571579	0.05	)
			(	0.089440604	0.085496712	0.05	)
			(	0.792838372	0.012698945	0.05	)
			(	0.463446934	0.020536085	0.05	)





		);
    }
	
	
);



// ************************************************************************* //
